##CIF_1.1

data_sm_global
#Used dictionaries
loop_
_audit_conform_dict_name
_audit_conform_dict_version
_audit_conform_dict_location
cif_core.dic 	2.4.2 	.
cif_pd.dic 		1.0.1 	.
cif_sm.dic 		0.1 	'redaktion.landolt-boernstein(at)springer.com'

#About this content and reference
_sm_credits_copyright
;PAULING FILE Multinaries Edition - 2012. SpringerMaterials Release 2014.
http://www.paulingfile.com
Unique LPF ID Number SD0455921
Project Coordinator: Shuichi Iwata
Section-Editors: Karin Cenzual (Crystal Structures), Hiroaki Okamoto (Phase 
Diagrams), Fritz Hulliger (Physical Properties)
(c) Springer & Material Phases Data System (MPDS), Switzerland & National 
Institute for Materials Science (NIMS), Japan 2014.
(Data generated pre-2002: (c) Springer & MPDS & NIMS; 
post-2001: (c) Springer & MPDS)
All Rights Reserved. Version 2014.06.
;

_audit_creation_method
;This data have been compiled from the crystallographic datasheet for 
"Na Crystal Structure" 
taken from SpringerMaterials (sm_isp_sd_0455921).
;

_publ_section_references
;Kanda F.A., Stevens R.M., Keller D.V. Jr.: <i>The Barium-Sodium Equilibrium System</i>. Journal of Physical Chemistry <b>69</b> (1965) 3867-3872.
;

#Phase classification
_sm_phase_labels				'Na rt'
_chemical_name_mineral			''
_sm_chemical_compound_class		'chemical element'
_sm_phase_prototype				'W'
_sm_pearson_symbol				'cI2'
_symmetry_Int_Tables_number		229
_sm_sample_details
;sample prepared from Na, 
powder (determination of cell and structural parameters)
;
_sm_measurement_details
;film (determination of cell and structural parameters), 
X-rays (determination of cell and structural parameters), 
<i>T</i> = 295 K (determination of cell parameters)
;
_sm_interpretation_details
;cell parameters determined and type with fixed coordinates assigned
;

data_sm_isp_SD0455921-standardized_unitcell
#Cell Parameters
_cell_length_a					4.283
_cell_length_b					4.283
_cell_length_c					4.283
_cell_angle_alpha				90
_cell_angle_beta				90
_cell_angle_gamma				90
_sm_length_ratio_ab				1.000
_sm_length_ratio_bc				1.000
_sm_length_ratio_ca				1.000
_cell_volume 					78.57
_symmetry_space_group_name_H-M	'Im-3m'
_symmetry_Int_Tables_number		229
_cell_formula_units_Z			2
_sm_cell_transformation
;No transformation from published to standardized cell parameters necessary.
;

#Atom Coordinates
loop_
_atom_site_label
_atom_site_type_symbol
_atom_site_Wyckoff_symbol
_sm_site_symmetry
_atom_site_fract_x
_atom_site_fract_y
_atom_site_fract_z
_atom_site_occupancy
_sm_coordination_number
_sm_atomic_environment_type
Na 'Na' .2a .m-3m 0 0 0 1 14 'rhombic dodecahedron, Na<sub>14</sub>'

_sm_atom_site_transformation
;No transformation from published to standardized cell parameters necessary.
;

data_sm_isp_SD0455921-published_cell
#Cell Parameters
_cell_length_a					4.283(3)
_cell_length_b					4.283(3)
_cell_length_c					4.283(3)
_cell_angle_alpha				90
_cell_angle_beta				90
_cell_angle_gamma				90
_sm_length_ratio_ab				1.000
_sm_length_ratio_bc				1.000
_sm_length_ratio_ca				1.000
_cell_volume 					78.57
_symmetry_space_group_name_H-M	'Im-3m'
_symmetry_Int_Tables_number		229
_cell_formula_units_Z			2

#Atom Coordinates
loop_
_atom_site_label
_atom_site_type_symbol
_atom_site_Wyckoff_symbol
_sm_site_symmetry
_atom_site_fract_x
_atom_site_fract_y
_atom_site_fract_z
_atom_site_occupancy
_sm_coordination_number
_sm_atomic_environment_type
Na 'Na' .2a .m-3m 0 0 0 1 ? '?'

data_sm_isp_SD0455921-niggli_reduced_cell
#Cell Parameters
_cell_length_a					3.7092
_cell_length_b					3.7092
_cell_length_c					3.7092
_cell_angle_alpha				109.471
_cell_angle_beta				109.471
_cell_angle_gamma				109.471
_sm_length_ratio_ab				1.000
_sm_length_ratio_bc				1.000
_sm_length_ratio_ca				1.000
_cell_volume 					39.28
_symmetry_space_group_name_H-M	''
_symmetry_Int_Tables_number		?
_cell_formula_units_Z			2

#Atom Coordinates
loop_
_atom_site_label
_atom_site_type_symbol
_atom_site_Wyckoff_symbol
_sm_site_symmetry
_atom_site_fract_x
_atom_site_fract_y
_atom_site_fract_z
_atom_site_occupancy
_sm_coordination_number
_sm_atomic_environment_type
? ? ? ? ? ? ? ? ? ?

